Version 4
SHEET 1 880 680
WIRE 608 96 336 96
WIRE 336 160 336 96
WIRE 336 160 176 160
WIRE 416 160 336 160
WIRE 608 160 496 160
WIRE 176 224 176 160
WIRE 176 336 176 304
FLAG 608 96 Port_1
IOPIN 608 96 Out
FLAG 608 160 Port_2
IOPIN 608 160 Out
FLAG 176 336 Port_3
IOPIN 176 336 Out
SYMBOL ISO7637-2 176 224 R0
SYMATTR InstName U1
SYMBOL res 512 144 R90
WINDOW 0 0 56 VBottom 2
WINDOW 3 32 56 VTop 2
SYMATTR InstName R1
SYMATTR Value R=if(V(Generator)<12,10,10m)
TEXT 256 400 Left 2 !.tran 10m
